<?xml version="1.0" encoding="UTF-8"?>

<!-- generated on 2026-05-02T10:04:01.001460+05:30 by Eclipse SUMO netgenerate 1.26.0
<netgenerateConfiguration xmlns:xsi="http://www.w3.org/2001/XMLSchema-instance" xsi:noNamespaceSchemaLocation="http://sumo.dlr.de/xsd/netgenerateConfiguration.xsd">

    <grid_network>
        <grid value="true"/>
        <grid.number value="6"/>
        <grid.length value="300"/>
        <grid.attach-length value="100"/>
    </grid_network>

    <output>
        <output-file value="D:\AI Traffic Flow\netsignal_sumo\network\grid6x6.net.xml"/>
    </output>

    <processing>
        <turn-lanes value="0"/>
    </processing>

    <building_defaults>
        <default.lanenumber value="2"/>
        <default.speed value="13.89"/>
    </building_defaults>

    <tls_building>
        <tls.guess value="true"/>
        <tls.green.time value="30"/>
        <tls.yellow.time value="3"/>
        <tls.default-type value="static"/>
    </tls_building>

    <report>
        <no-warnings value="true"/>
    </report>

</netgenerateConfiguration>
-->

<net version="1.20" junctionCornerDetail="5" limitTurnSpeed="5.50" xmlns:xsi="http://www.w3.org/2001/XMLSchema-instance" xsi:noNamespaceSchemaLocation="http://sumo.dlr.de/xsd/net_file.xsd">

    <location netOffset="0.00,0.00" convBoundary="0.00,0.00,1700.00,1700.00" origBoundary="0.00,0.00,1700.00,1700.00" projParameter="!"/>

    <edge id=":A0_0" function="internal">
        <lane id=":A0_0_0" index="0" speed="6.51" length="9.03" shape="95.20,110.40 94.85,107.95 93.80,106.20 92.05,105.15 89.60,104.80"/>
    </edge>
    <edge id=":A0_1" function="internal">
        <lane id=":A0_1_0" index="0" speed="13.89" length="20.80" shape="95.20,110.40 95.20,89.60"/>
        <lane id=":A0_1_1" index="1" speed="13.89" length="20.80" shape="98.40,110.40 98.40,89.60"/>
    </edge>
    <edge id=":A0_3" function="internal">
        <lane id=":A0_3_0" index="0" speed="9.26" length="5.01" shape="98.40,110.40 99.11,105.44"/>
    </edge>
    <edge id=":A0_4" function="internal">
        <lane id=":A0_4_0" index="0" speed="3.65" length="1.44" shape="98.40,110.40 99.20,109.20"/>
    </edge>
    <edge id=":A0_20" function="internal">
        <lane id=":A0_20_0" index="0" speed="9.26" length="14.34" shape="99.11,105.44 99.15,105.15 101.40,101.40 105.15,99.15 110.40,98.40"/>
    </edge>
    <edge id=":A0_21" function="internal">
        <lane id=":A0_21_0" index="0" speed="3.65" length="3.23" shape="99.20,109.20 100.00,108.80 100.80,109.20 101.60,110.40"/>
    </edge>
    <edge id=":A0_5" function="internal">
        <lane id=":A0_5_0" index="0" speed="6.51" length="9.03" shape="110.40,104.80 107.95,105.15 106.20,106.20 105.15,107.95 104.80,110.40"/>
    </edge>
    <edge id=":A0_6" function="internal">
        <lane id=":A0_6_0" index="0" speed="13.89" length="20.80" shape="110.40,104.80 89.60,104.80"/>
        <lane id=":A0_6_1" index="1" speed="13.89" length="20.80" shape="110.40,101.60 89.60,101.60"/>
    </edge>
    <edge id=":A0_8" function="internal">
        <lane id=":A0_8_0" index="0" speed="9.26" length="5.01" shape="110.40,101.60 105.44,100.89"/>
    </edge>
    <edge id=":A0_9" function="internal">
        <lane id=":A0_9_0" index="0" speed="3.65" length="1.44" shape="110.40,101.60 109.20,100.80"/>
    </edge>
    <edge id=":A0_22" function="internal">
        <lane id=":A0_22_0" index="0" speed="9.26" length="14.34" shape="105.44,100.89 105.15,100.85 101.40,98.60 99.15,94.85 98.40,89.60"/>
    </edge>
    <edge id=":A0_23" function="internal">
        <lane id=":A0_23_0" index="0" speed="3.65" length="3.23" shape="109.20,100.80 108.80,100.00 109.20,99.20 110.40,98.40"/>
    </edge>
    <edge id=":A0_10" function="internal">
        <lane id=":A0_10_0" index="0" speed="6.51" length="9.03" shape="104.80,89.60 105.15,92.05 106.20,93.80 107.95,94.85 110.40,95.20"/>
    </edge>
    <edge id=":A0_11" function="internal">
        <lane id=":A0_11_0" index="0" speed="13.89" length="20.80" shape="104.80,89.60 104.80,110.40"/>
        <lane id=":A0_11_1" index="1" speed="13.89" length="20.80" shape="101.60,89.60 101.60,110.40"/>
    </edge>
    <edge id=":A0_13" function="internal">
        <lane id=":A0_13_0" index="0" speed="9.26" length="5.01" shape="101.60,89.60 100.89,94.56"/>
    </edge>
    <edge id=":A0_14" function="internal">
        <lane id=":A0_14_0" index="0" speed="3.65" length="1.44" shape="101.60,89.60 100.80,90.80"/>
    </edge>
    <edge id=":A0_24" function="internal">
        <lane id=":A0_24_0" index="0" speed="9.26" length="14.34" shape="100.89,94.56 100.85,94.85 98.60,98.60 94.85,100.85 89.60,101.60"/>
    </edge>
    <edge id=":A0_25" function="internal">
        <lane id=":A0_25_0" index="0" speed="3.65" length="3.23" shape="100.80,90.80 100.00,91.20 99.20,90.80 98.40,89.60"/>
    </edge>
    <edge id=":A0_15" function="internal">
        <lane id=":A0_15_0" index="0" speed="6.51" length="9.03" shape="89.60,95.20 92.05,94.85 93.80,93.80 94.85,92.05 95.20,89.60"/>
    </edge>
    <edge id=":A0_16" function="internal">
        <lane id=":A0_16_0" index="0" speed="13.89" length="20.80" shape="89.60,95.20 110.40,95.20"/>
        <lane id=":A0_16_1" index="1" speed="13.89" length="20.80" shape="89.60,98.40 110.40,98.40"/>
    </edge>
    <edge id=":A0_18" function="internal">
        <lane id=":A0_18_0" index="0" speed="9.26" length="5.01" shape="89.60,98.40 94.56,99.11"/>
    </edge>
    <edge id=":A0_19" function="internal">
        <lane id=":A0_19_0" index="0" speed="3.65" length="1.44" shape="89.60,98.40 90.80,99.20"/>
    </edge>
    <edge id=":A0_26" function="internal">
        <lane id=":A0_26_0" index="0" speed="9.26" length="14.34" shape="94.56,99.11 94.85,99.15 98.60,101.40 100.85,105.15 101.60,110.40"/>
    </edge>
    <edge id=":A0_27" function="internal">
        <lane id=":A0_27_0" index="0" speed="3.65" length="3.23" shape="90.80,99.20 91.20,100.00 90.80,100.80 89.60,101.60"/>
    </edge>
    <edge id=":A1_0" function="internal">
        <lane id=":A1_0_0" index="0" speed="6.51" length="9.03" shape="95.20,410.40 94.85,407.95 93.80,406.20 92.05,405.15 89.60,404.80"/>
    </edge>
    <edge id=":A1_1" function="internal">
        <lane id=":A1_1_0" index="0" speed="13.89" length="20.80" shape="95.20,410.40 95.20,389.60"/>
        <lane id=":A1_1_1" index="1" speed="13.89" length="20.80" shape="98.40,410.40 98.40,389.60"/>
    </edge>
    <edge id=":A1_3" function="internal">
        <lane id=":A1_3_0" index="0" speed="9.26" length="5.01" shape="98.40,410.40 99.11,405.44"/>
    </edge>
    <edge id=":A1_4" function="internal">
        <lane id=":A1_4_0" index="0" speed="3.65" length="1.44" shape="98.40,410.40 99.20,409.20"/>
    </edge>
    <edge id=":A1_20" function="internal">
        <lane id=":A1_20_0" index="0" speed="9.26" length="14.34" shape="99.11,405.44 99.15,405.15 101.40,401.40 105.15,399.15 110.40,398.40"/>
    </edge>
    <edge id=":A1_21" function="internal">
        <lane id=":A1_21_0" index="0" speed="3.65" length="3.23" shape="99.20,409.20 100.00,408.80 100.80,409.20 101.60,410.40"/>
    </edge>
    <edge id=":A1_5" function="internal">
        <lane id=":A1_5_0" index="0" speed="6.51" length="9.03" shape="110.40,404.80 107.95,405.15 106.20,406.20 105.15,407.95 104.80,410.40"/>
    </edge>
    <edge id=":A1_6" function="internal">
        <lane id=":A1_6_0" index="0" speed="13.89" length="20.80" shape="110.40,404.80 89.60,404.80"/>
        <lane id=":A1_6_1" index="1" speed="13.89" length="20.80" shape="110.40,401.60 89.60,401.60"/>
    </edge>
    <edge id=":A1_8" function="internal">
        <lane id=":A1_8_0" index="0" speed="9.26" length="5.01" shape="110.40,401.60 105.44,400.89"/>
    </edge>
    <edge id=":A1_9" function="internal">
        <lane id=":A1_9_0" index="0" speed="3.65" length="1.44" shape="110.40,401.60 109.20,400.80"/>
    </edge>
    <edge id=":A1_22" function="internal">
        <lane id=":A1_22_0" index="0" speed="9.26" length="14.34" shape="105.44,400.89 105.15,400.85 101.40,398.60 99.15,394.85 98.40,389.60"/>
    </edge>
    <edge id=":A1_23" function="internal">
        <lane id=":A1_23_0" index="0" speed="3.65" length="3.23" shape="109.20,400.80 108.80,400.00 109.20,399.20 110.40,398.40"/>
    </edge>
    <edge id=":A1_10" function="internal">
        <lane id=":A1_10_0" index="0" speed="6.51" length="9.03" shape="104.80,389.60 105.15,392.05 106.20,393.80 107.95,394.85 110.40,395.20"/>
    </edge>
    <edge id=":A1_11" function="internal">
        <lane id=":A1_11_0" index="0" speed="13.89" length="20.80" shape="104.80,389.60 104.80,410.40"/>
        <lane id=":A1_11_1" index="1" speed="13.89" length="20.80" shape="101.60,389.60 101.60,410.40"/>
    </edge>
    <edge id=":A1_13" function="internal">
        <lane id=":A1_13_0" index="0" speed="9.26" length="5.01" shape="101.60,389.60 100.89,394.56"/>
    </edge>
    <edge id=":A1_14" function="internal">
        <lane id=":A1_14_0" index="0" speed="3.65" length="1.44" shape="101.60,389.60 100.80,390.80"/>
    </edge>
    <edge id=":A1_24" function="internal">
        <lane id=":A1_24_0" index="0" speed="9.26" length="14.34" shape="100.89,394.56 100.85,394.85 98.60,398.60 94.85,400.85 89.60,401.60"/>
    </edge>
    <edge id=":A1_25" function="internal">
        <lane id=":A1_25_0" index="0" speed="3.65" length="3.23" shape="100.80,390.80 100.00,391.20 99.20,390.80 98.40,389.60"/>
    </edge>
    <edge id=":A1_15" function="internal">
        <lane id=":A1_15_0" index="0" speed="6.51" length="9.03" shape="89.60,395.20 92.05,394.85 93.80,393.80 94.85,392.05 95.20,389.60"/>
    </edge>
    <edge id=":A1_16" function="internal">
        <lane id=":A1_16_0" index="0" speed="13.89" length="20.80" shape="89.60,395.20 110.40,395.20"/>
        <lane id=":A1_16_1" index="1" speed="13.89" length="20.80" shape="89.60,398.40 110.40,398.40"/>
    </edge>
    <edge id=":A1_18" function="internal">
        <lane id=":A1_18_0" index="0" speed="9.26" length="5.01" shape="89.60,398.40 94.56,399.11"/>
    </edge>
    <edge id=":A1_19" function="internal">
        <lane id=":A1_19_0" index="0" speed="3.65" length="1.44" shape="89.60,398.40 90.80,399.20"/>
    </edge>
    <edge id=":A1_26" function="internal">
        <lane id=":A1_26_0" index="0" speed="9.26" length="14.34" shape="94.56,399.11 94.85,399.15 98.60,401.40 100.85,405.15 101.60,410.40"/>
    </edge>
    <edge id=":A1_27" function="internal">
        <lane id=":A1_27_0" index="0" speed="3.65" length="3.23" shape="90.80,399.20 91.20,400.00 90.80,400.80 89.60,401.60"/>
    </edge>
    <edge id=":A2_0" function="internal">
        <lane id=":A2_0_0" index="0" speed="6.51" length="9.03" shape="95.20,710.40 94.85,707.95 93.80,706.20 92.05,705.15 89.60,704.80"/>
    </edge>
    <edge id=":A2_1" function="internal">
        <lane id=":A2_1_0" index="0" speed="13.89" length="20.80" shape="95.20,710.40 95.20,689.60"/>
        <lane id=":A2_1_1" index="1" speed="13.89" length="20.80" shape="98.40,710.40 98.40,689.60"/>
    </edge>
    <edge id=":A2_3" function="internal">
        <lane id=":A2_3_0" index="0" speed="9.26" length="5.01" shape="98.40,710.40 99.11,705.44"/>
    </edge>
    <edge id=":A2_4" function="internal">
        <lane id=":A2_4_0" index="0" speed="3.65" length="1.44" shape="98.40,710.40 99.20,709.20"/>
    </edge>
    <edge id=":A2_20" function="internal">
        <lane id=":A2_20_0" index="0" speed="9.26" length="14.34" shape="99.11,705.44 99.15,705.15 101.40,701.40 105.15,699.15 110.40,698.40"/>
    </edge>
    <edge id=":A2_21" function="internal">
        <lane id=":A2_21_0" index="0" speed="3.65" length="3.23" shape="99.20,709.20 100.00,708.80 100.80,709.20 101.60,710.40"/>
    </edge>
    <edge id=":A2_5" function="internal">
        <lane id=":A2_5_0" index="0" speed="6.51" length="9.03" shape="110.40,704.80 107.95,705.15 106.20,706.20 105.15,707.95 104.80,710.40"/>
    </edge>
    <edge id=":A2_6" function="internal">
        <lane id=":A2_6_0" index="0" speed="13.89" length="20.80" shape="110.40,704.80 89.60,704.80"/>
        <lane id=":A2_6_1" index="1" speed="13.89" length="20.80" shape="110.40,701.60 89.60,701.60"/>
    </edge>
    <edge id=":A2_8" function="internal">
        <lane id=":A2_8_0" index="0" speed="9.26" length="5.01" shape="110.40,701.60 105.44,700.89"/>
    </edge>
    <edge id=":A2_9" function="internal">
        <lane id=":A2_9_0" index="0" speed="3.65" length="1.44" shape="110.40,701.60 109.20,700.80"/>
    </edge>
    <edge id=":A2_22" function="internal">
        <lane id=":A2_22_0" index="0" speed="9.26" length="14.34" shape="105.44,700.89 105.15,700.85 101.40,698.60 99.15,694.85 98.40,689.60"/>
    </edge>
    <edge id=":A2_23" function="internal">
        <lane id=":A2_23_0" index="0" speed="3.65" length="3.23" shape="109.20,700.80 108.80,700.00 109.20,699.20 110.40,698.40"/>
    </edge>
    <edge id=":A2_10" function="internal">
        <lane id=":A2_10_0" index="0" speed="6.51" length="9.03" shape="104.80,689.60 105.15,692.05 106.20,693.80 107.95,694.85 110.40,695.20"/>
    </edge>
    <edge id=":A2_11" function="internal">
        <lane id=":A2_11_0" index="0" speed="13.89" length="20.80" shape="104.80,689.60 104.80,710.40"/>
        <lane id=":A2_11_1" index="1" speed="13.89" length="20.80" shape="101.60,689.60 101.60,710.40"/>
    </edge>
    <edge id=":A2_13" function="internal">
        <lane id=":A2_13_0" index="0" speed="9.26" length="5.01" shape="101.60,689.60 100.89,694.56"/>
    </edge>
    <edge id=":A2_14" function="internal">
        <lane id=":A2_14_0" index="0" speed="3.65" length="1.44" shape="101.60,689.60 100.80,690.80"/>
    </edge>
    <edge id=":A2_24" function="internal">
        <lane id=":A2_24_0" index="0" speed="9.26" length="14.34" shape="100.89,694.56 100.85,694.85 98.60,698.60 94.85,700.85 89.60,701.60"/>
    </edge>
    <edge id=":A2_25" function="internal">
        <lane id=":A2_25_0" index="0" speed="3.65" length="3.23" shape="100.80,690.80 100.00,691.20 99.20,690.80 98.40,689.60"/>
    </edge>
    <edge id=":A2_15" function="internal">
        <lane id=":A2_15_0" index="0" speed="6.51" length="9.03" shape="89.60,695.20 92.05,694.85 93.80,693.80 94.85,692.05 95.20,689.60"/>
    </edge>
    <edge id=":A2_16" function="internal">
        <lane id=":A2_16_0" index="0" speed="13.89" length="20.80" shape="89.60,695.20 110.40,695.20"/>
        <lane id=":A2_16_1" index="1" speed="13.89" length="20.80" shape="89.60,698.40 110.40,698.40"/>
    </edge>
    <edge id=":A2_18" function="internal">
        <lane id=":A2_18_0" index="0" speed="9.26" length="5.01" shape="89.60,698.40 94.56,699.11"/>
    </edge>
    <edge id=":A2_19" function="internal">
        <lane id=":A2_19_0" index="0" speed="3.65" length="1.44" shape="89.60,698.40 90.80,699.20"/>
    </edge>
    <edge id=":A2_26" function="internal">
        <lane id=":A2_26_0" index="0" speed="9.26" length="14.34" shape="94.56,699.11 94.85,699.15 98.60,701.40 100.85,705.15 101.60,710.40"/>
    </edge>
    <edge id=":A2_27" function="internal">
        <lane id=":A2_27_0" index="0" speed="3.65" length="3.23" shape="90.80,699.20 91.20,700.00 90.80,700.80 89.60,701.60"/>
    </edge>
    <edge id=":A3_0" function="internal">
        <lane id=":A3_0_0" index="0" speed="6.51" length="9.03" shape="95.20,1010.40 94.85,1007.95 93.80,1006.20 92.05,1005.15 89.60,1004.80"/>
    </edge>
    <edge id=":A3_1" function="internal">
        <lane id=":A3_1_0" index="0" speed="13.89" length="20.80" shape="95.20,1010.40 95.20,989.60"/>
        <lane id=":A3_1_1" index="1" speed="13.89" length="20.80" shape="98.40,1010.40 98.40,989.60"/>
    </edge>
    <edge id=":A3_3" function="internal">
        <lane id=":A3_3_0" index="0" speed="9.26" length="5.01" shape="98.40,1010.40 99.11,1005.44"/>
    </edge>
    <edge id=":A3_4" function="internal">
        <lane id=":A3_4_0" index="0" speed="3.65" length="1.44" shape="98.40,1010.40 99.20,1009.20"/>
    </edge>
    <edge id=":A3_20" function="internal">
        <lane id=":A3_20_0" index="0" speed="9.26" length="14.34" shape="99.11,1005.44 99.15,1005.15 101.40,1001.40 105.15,999.15 110.40,998.40"/>
    </edge>
    <edge id=":A3_21" function="internal">
        <lane id=":A3_21_0" index="0" speed="3.65" length="3.23" shape="99.20,1009.20 100.00,1008.80 100.80,1009.20 101.60,1010.40"/>
    </edge>
    <edge id=":A3_5" function="internal">
        <lane id=":A3_5_0" index="0" speed="6.51" length="9.03" shape="110.40,1004.80 107.95,1005.15 106.20,1006.20 105.15,1007.95 104.80,1010.40"/>
    </edge>
    <edge id=":A3_6" function="internal">
        <lane id=":A3_6_0" index="0" speed="13.89" length="20.80" shape="110.40,1004.80 89.60,1004.80"/>
        <lane id=":A3_6_1" index="1" speed="13.89" length="20.80" shape="110.40,1001.60 89.60,1001.60"/>
    </edge>
    <edge id=":A3_8" function="internal">
        <lane id=":A3_8_0" index="0" speed="9.26" length="5.01" shape="110.40,1001.60 105.44,1000.89"/>
    </edge>
    <edge id=":A3_9" function="internal">
        <lane id=":A3_9_0" index="0" speed="3.65" length="1.44" shape="110.40,1001.60 109.20,1000.80"/>
    </edge>
    <edge id=":A3_22" function="internal">
        <lane id=":A3_22_0" index="0" speed="9.26" length="14.34" shape="105.44,1000.89 105.15,1000.85 101.40,998.60 99.15,994.85 98.40,989.60"/>
    </edge>
    <edge id=":A3_23" function="internal">
        <lane id=":A3_23_0" index="0" speed="3.65" length="3.23" shape="109.20,1000.80 108.80,1000.00 109.20,999.20 110.40,998.40"/>
    </edge>
    <edge id=":A3_10" function="internal">
        <lane id=":A3_10_0" index="0" speed="6.51" length="9.03" shape="104.80,989.60 105.15,992.05 106.20,993.80 107.95,994.85 110.40,995.20"/>
    </edge>
    <edge id=":A3_11" function="internal">
        <lane id=":A3_11_0" index="0" speed="13.89" length="20.80" shape="104.80,989.60 104.80,1010.40"/>
        <lane id=":A3_11_1" index="1" speed="13.89" length="20.80" shape="101.60,989.60 101.60,1010.40"/>
    </edge>
    <edge id=":A3_13" function="internal">
        <lane id=":A3_13_0" index="0" speed="9.26" length="5.01" shape="101.60,989.60 100.89,994.56"/>
    </edge>
    <edge id=":A3_14" function="internal">
        <lane id=":A3_14_0" index="0" speed="3.65" length="1.44" shape="101.60,989.60 100.80,990.80"/>
    </edge>
    <edge id=":A3_24" function="internal">
        <lane id=":A3_24_0" index="0" speed="9.26" length="14.34" shape="100.89,994.56 100.85,994.85 98.60,998.60 94.85,1000.85 89.60,1001.60"/>
    </edge>
    <edge id=":A3_25" function="internal">
        <lane id=":A3_25_0" index="0" speed="3.65" length="3.23" shape="100.80,990.80 100.00,991.20 99.20,990.80 98.40,989.60"/>
    </edge>
    <edge id=":A3_15" function="internal">
        <lane id=":A3_15_0" index="0" speed="6.51" length="9.03" shape="89.60,995.20 92.05,994.85 93.80,993.80 94.85,992.05 95.20,989.60"/>
    </edge>
    <edge id=":A3_16" function="internal">
        <lane id=":A3_16_0" index="0" speed="13.89" length="20.80" shape="89.60,995.20 110.40,995.20"/>
        <lane id=":A3_16_1" index="1" speed="13.89" length="20.80" shape="89.60,998.40 110.40,998.40"/>
    </edge>
    <edge id=":A3_18" function="internal">
        <lane id=":A3_18_0" index="0" speed="9.26" length="5.01" shape="89.60,998.40 94.56,999.11"/>
    </edge>
    <edge id=":A3_19" function="internal">
        <lane id=":A3_19_0" index="0" speed="3.65" length="1.44" shape="89.60,998.40 90.80,999.20"/>
    </edge>
    <edge id=":A3_26" function="internal">
        <lane id=":A3_26_0" index="0" speed="9.26" length="14.34" shape="94.56,999.11 94.85,999.15 98.60,1001.40 100.85,1005.15 101.60,1010.40"/>
    </edge>
    <edge id=":A3_27" function="internal">
        <lane id=":A3_27_0" index="0" speed="3.65" length="3.23" shape="90.80,999.20 91.20,1000.00 90.80,1000.80 89.60,1001.60"/>
    </edge>
    <edge id=":A4_0" function="internal">
        <lane id=":A4_0_0" index="0" speed="6.51" length="9.03" shape="95.20,1310.40 94.85,1307.95 93.80,1306.20 92.05,1305.15 89.60,1304.80"/>
    </edge>
    <edge id=":A4_1" function="internal">
        <lane id=":A4_1_0" index="0" speed="13.89" length="20.80" shape="95.20,1310.40 95.20,1289.60"/>
        <lane id=":A4_1_1" index="1" speed="13.89" length="20.80" shape="98.40,1310.40 98.40,1289.60"/>
    </edge>
    <edge id=":A4_3" function="internal">
        <lane id=":A4_3_0" index="0" speed="9.26" length="5.01" shape="98.40,1310.40 99.11,1305.44"/>
    </edge>
    <edge id=":A4_4" function="internal">
        <lane id=":A4_4_0" index="0" speed="3.65" length="1.44" shape="98.40,1310.40 99.20,1309.20"/>
    </edge>
    <edge id=":A4_20" function="internal">
        <lane id=":A4_20_0" index="0" speed="9.26" length="14.34" shape="99.11,1305.44 99.15,1305.15 101.40,1301.40 105.15,1299.15 110.40,1298.40"/>
    </edge>
    <edge id=":A4_21" function="internal">
        <lane id=":A4_21_0" index="0" speed="3.65" length="3.23" shape="99.20,1309.20 100.00,1308.80 100.80,1309.20 101.60,1310.40"/>
    </edge>
    <edge id=":A4_5" function="internal">
        <lane id=":A4_5_0" index="0" speed="6.51" length="9.03" shape="110.40,1304.80 107.95,1305.15 106.20,1306.20 105.15,1307.95 104.80,1310.40"/>
    </edge>
    <edge id=":A4_6" function="internal">
        <lane id=":A4_6_0" index="0" speed="13.89" length="20.80" shape="110.40,1304.80 89.60,1304.80"/>
        <lane id=":A4_6_1" index="1" speed="13.89" length="20.80" shape="110.40,1301.60 89.60,1301.60"/>
    </edge>
    <edge id=":A4_8" function="internal">
        <lane id=":A4_8_0" index="0" speed="9.26" length="5.01" shape="110.40,1301.60 105.44,1300.89"/>
    </edge>
    <edge id=":A4_9" function="internal">
        <lane id=":A4_9_0" index="0" speed="3.65" length="1.44" shape="110.40,1301.60 109.20,1300.80"/>
    </edge>
    <edge id=":A4_22" function="internal">
        <lane id=":A4_22_0" index="0" speed="9.26" length="14.34" shape="105.44,1300.89 105.15,1300.85 101.40,1298.60 99.15,1294.85 98.40,1289.60"/>
    </edge>
    <edge id=":A4_23" function="internal">
        <lane id=":A4_23_0" index="0" speed="3.65" length="3.23" shape="109.20,1300.80 108.80,1300.00 109.20,1299.20 110.40,1298.40"/>
    </edge>
    <edge id=":A4_10" function="internal">
        <lane id=":A4_10_0" index="0" speed="6.51" length="9.03" shape="104.80,1289.60 105.15,1292.05 106.20,1293.80 107.95,1294.85 110.40,1295.20"/>
    </edge>
    <edge id=":A4_11" function="internal">
        <lane id=":A4_11_0" index="0" speed="13.89" length="20.80" shape="104.80,1289.60 104.80,1310.40"/>
        <lane id=":A4_11_1" index="1" speed="13.89" length="20.80" shape="101.60,1289.60 101.60,1310.40"/>
    </edge>
    <edge id=":A4_13" function="internal">
        <lane id=":A4_13_0" index="0" speed="9.26" length="5.01" shape="101.60,1289.60 100.89,1294.56"/>
    </edge>
    <edge id=":A4_14" function="internal">
        <lane id=":A4_14_0" index="0" speed="3.65" length="1.44" shape="101.60,1289.60 100.80,1290.80"/>
    </edge>
    <edge id=":A4_24" function="internal">
        <lane id=":A4_24_0" index="0" speed="9.26" length="14.34" shape="100.89,1294.56 100.85,1294.85 98.60,1298.60 94.85,1300.85 89.60,1301.60"/>
    </edge>
    <edge id=":A4_25" function="internal">
        <lane id=":A4_25_0" index="0" speed="3.65" length="3.23" shape="100.80,1290.80 100.00,1291.20 99.20,1290.80 98.40,1289.60"/>
    </edge>
    <edge id=":A4_15" function="internal">
        <lane id=":A4_15_0" index="0" speed="6.51" length="9.03" shape="89.60,1295.20 92.05,1294.85 93.80,1293.80 94.85,1292.05 95.20,1289.60"/>
    </edge>
    <edge id=":A4_16" function="internal">
        <lane id=":A4_16_0" index="0" speed="13.89" length="20.80" shape="89.60,1295.20 110.40,1295.20"/>
        <lane id=":A4_16_1" index="1" speed="13.89" length="20.80" shape="89.60,1298.40 110.40,1298.40"/>
    </edge>
    <edge id=":A4_18" function="internal">
        <lane id=":A4_18_0" index="0" speed="9.26" length="5.01" shape="89.60,1298.40 94.56,1299.11"/>
    </edge>
    <edge id=":A4_19" function="internal">
        <lane id=":A4_19_0" index="0" speed="3.65" length="1.44" shape="89.60,1298.40 90.80,1299.20"/>
    </edge>
    <edge id=":A4_26" function="internal">
        <lane id=":A4_26_0" index="0" speed="9.26" length="14.34" shape="94.56,1299.11 94.85,1299.15 98.60,1301.40 100.85,1305.15 101.60,1310.40"/>
    </edge>
    <edge id=":A4_27" function="internal">
        <lane id=":A4_27_0" index="0" speed="3.65" length="3.23" shape="90.80,1299.20 91.20,1300.00 90.80,1300.80 89.60,1301.60"/>
    </edge>
    <edge id=":A5_0" function="internal">
        <lane id=":A5_0_0" index="0" speed="6.51" length="9.03" shape="95.20,1610.40 94.85,1607.95 93.80,1606.20 92.05,1605.15 89.60,1604.80"/>
    </edge>
    <edge id=":A5_1" function="internal">
        <lane id=":A5_1_0" index="0" speed="13.89" length="20.80" shape="95.20,1610.40 95.20,1589.60"/>
        <lane id=":A5_1_1" index="1" speed="13.89" length="20.80" shape="98.40,1610.40 98.40,1589.60"/>
    </edge>
    <edge id=":A5_3" function="internal">
        <lane id=":A5_3_0" index="0" speed="9.26" length="5.01" shape="98.40,1610.40 99.11,1605.44"/>
    </edge>
    <edge id=":A5_4" function="internal">
        <lane id=":A5_4_0" index="0" speed="3.65" length="1.44" shape="98.40,1610.40 99.20,1609.20"/>
    </edge>
    <edge id=":A5_20" function="internal">
        <lane id=":A5_20_0" index="0" speed="9.26" length="14.34" shape="99.11,1605.44 99.15,1605.15 101.40,1601.40 105.15,1599.15 110.40,1598.40"/>
    </edge>
    <edge id=":A5_21" function="internal">
        <lane id=":A5_21_0" index="0" speed="3.65" length="3.23" shape="99.20,1609.20 100.00,1608.80 100.80,1609.20 101.60,1610.40"/>
    </edge>
    <edge id=":A5_5" function="internal">
        <lane id=":A5_5_0" index="0" speed="6.51" length="9.03" shape="110.40,1604.80 107.95,1605.15 106.20,1606.20 105.15,1607.95 104.80,1610.40"/>
    </edge>
    <edge id=":A5_6" function="internal">
        <lane id=":A5_6_0" index="0" speed="13.89" length="20.80" shape="110.40,1604.80 89.60,1604.80"/>
        <lane id=":A5_6_1" index="1" speed="13.89" length="20.80" shape="110.40,1601.60 89.60,1601.60"/>
    </edge>
    <edge id=":A5_8" function="internal">
        <lane id=":A5_8_0" index="0" speed="9.26" length="5.01" shape="110.40,1601.60 105.44,1600.89"/>
    </edge>
    <edge id=":A5_9" function="internal">
        <lane id=":A5_9_0" index="0" speed="3.65" length="1.44" shape="110.40,1601.60 109.20,1600.80"/>
    </edge>
    <edge id=":A5_22" function="internal">
        <lane id=":A5_22_0" index="0" speed="9.26" length="14.34" shape="105.44,1600.89 105.15,1600.85 101.40,1598.60 99.15,1594.85 98.40,1589.60"/>
    </edge>
    <edge id=":A5_23" function="internal">
        <lane id=":A5_23_0" index="0" speed="3.65" length="3.23" shape="109.20,1600.80 108.80,1600.00 109.20,1599.20 110.40,1598.40"/>
    </edge>
    <edge id=":A5_10" function="internal">
        <lane id=":A5_10_0" index="0" speed="6.51" length="9.03" shape="104.80,1589.60 105.15,1592.05 106.20,1593.80 107.95,1594.85 110.40,1595.20"/>
    </edge>
    <edge id=":A5_11" function="internal">
        <lane id=":A5_11_0" index="0" speed="13.89" length="20.80" shape="104.80,1589.60 104.80,1610.40"/>
        <lane id=":A5_11_1" index="1" speed="13.89" length="20.80" shape="101.60,1589.60 101.60,1610.40"/>
    </edge>
    <edge id=":A5_13" function="internal">
        <lane id=":A5_13_0" index="0" speed="9.26" length="5.01" shape="101.60,1589.60 100.89,1594.56"/>
    </edge>
    <edge id=":A5_14" function="internal">
        <lane id=":A5_14_0" index="0" speed="3.65" length="1.44" shape="101.60,1589.60 100.80,1590.80"/>
    </edge>
    <edge id=":A5_24" function="internal">
        <lane id=":A5_24_0" index="0" speed="9.26" length="14.34" shape="100.89,1594.56 100.85,1594.85 98.60,1598.60 94.85,1600.85 89.60,1601.60"/>
    </edge>
    <edge id=":A5_25" function="internal">
        <lane id=":A5_25_0" index="0" speed="3.65" length="3.23" shape="100.80,1590.80 100.00,1591.20 99.20,1590.80 98.40,1589.60"/>
    </edge>
    <edge id=":A5_15" function="internal">
        <lane id=":A5_15_0" index="0" speed="6.51" length="9.03" shape="89.60,1595.20 92.05,1594.85 93.80,1593.80 94.85,1592.05 95.20,1589.60"/>
    </edge>
    <edge id=":A5_16" function="internal">
        <lane id=":A5_16_0" index="0" speed="13.89" length="20.80" shape="89.60,1595.20 110.40,1595.20"/>
        <lane id=":A5_16_1" index="1" speed="13.89" length="20.80" shape="89.60,1598.40 110.40,1598.40"/>
    </edge>
    <edge id=":A5_18" function="internal">
        <lane id=":A5_18_0" index="0" speed="9.26" length="5.01" shape="89.60,1598.40 94.56,1599.11"/>
    </edge>
    <edge id=":A5_19" function="internal">
        <lane id=":A5_19_0" index="0" speed="3.65" length="1.44" shape="89.60,1598.40 90.80,1599.20"/>
    </edge>
    <edge id=":A5_26" function="internal">
        <lane id=":A5_26_0" index="0" speed="9.26" length="14.34" shape="94.56,1599.11 94.85,1599.15 98.60,1601.40 100.85,1605.15 101.60,1610.40"/>
    </edge>
    <edge id=":A5_27" function="internal">
        <lane id=":A5_27_0" index="0" speed="3.65" length="3.23" shape="90.80,1599.20 91.20,1600.00 90.80,1600.80 89.60,1601.60"/>
    </edge>
    <edge id=":B0_0" function="internal">
        <lane id=":B0_0_0" index="0" speed="6.51" length="9.03" shape="395.20,110.40 394.85,107.95 393.80,106.20 392.05,105.15 389.60,104.80"/>
    </edge>
    <edge id=":B0_1" function="internal">
        <lane id=":B0_1_0" index="0" speed="13.89" length="20.80" shape="395.20,110.40 395.20,89.60"/>
        <lane id=":B0_1_1" index="1" speed="13.89" length="20.80" shape="398.40,110.40 398.40,89.60"/>
    </edge>
    <edge id=":B0_3" function="internal">
        <lane id=":B0_3_0" index="0" speed="9.26" length="5.01" shape="398.40,110.40 399.11,105.44"/>
    </edge>
    <edge id=":B0_4" function="internal">